# total energy = -597.05158275 eV

CRYSTAL
PRIMVEC
10.355910301 0.000000000 0.000000000
5.896951249 8.512980919 0.000000000
5.896951249 3.088725841 7.932881999
        
PRIMCOORD
81 1
Al 20.53990 10.71881 7.34888
Al 17.56914 9.18184 3.38259
Al 4.59224 5.08612 0.58946
Al 7.54936 6.66298 4.55835
Al 9.08787 2.01258 1.41388
Al 9.81554 2.38082 4.57122
Al 9.76608 5.08257 0.60323
Al 12.72202 6.62266 4.56158
Al 3.90824 2.02269 1.39719
Al 6.84260 3.69797 5.44450
Al 6.85099 6.27339 1.43650
Al 9.81813 7.82651 5.36841
Al 12.35271 3.73667 2.57378
Al 6.82756 0.83504 0.56213
Al 12.03911 6.26281 1.38802
Al 14.99027 7.81662 5.36738
Al 7.16770 3.72099 2.57136
Al 10.12650 5.28465 6.54195
Al 10.08322 7.96533 2.55799
Al 13.12739 9.49274 6.63779
Al 12.03733 3.57880 5.37502
Al 15.28510 5.30468 6.56364
Al 15.30777 7.99123 2.57389
Al 18.26152 9.54184 6.54218
Al 9.44568 4.92584 3.38553
Al 12.38702 6.46432 7.35662
Al 12.34543 9.05965 3.27339
Al 15.36683 10.73266 7.35830
Al 14.62122 4.93581 3.37905
Al 17.57842 6.48503 7.35871
Al 1.63799 0.83782 0.59831
Al 4.54033 2.41727 4.51659
O 6.40550 4.37703 1.00331
O 9.34955 5.91765 4.96411
O 9.34793 8.63954 0.99412
O 12.45922 10.08768 4.92029
O 11.58295 4.38130 1.00077
O 14.53559 5.92177 4.96715
O 14.53669 8.63482 0.99328
O 17.50010 10.18588 4.96195
O 5.36312 1.94927 0.22561
O 8.27149 3.43735 4.23984
O 8.31659 6.21023 0.25749
O 11.26026 7.73510 4.17443
O 10.53720 1.95393 0.22815
O 13.47447 3.51734 4.18857
O 13.50131 6.20964 0.21592
O 16.43945 7.75962 4.19703
O 5.72550 3.78461 3.77440
O 8.66851 5.34979 7.71249
O 8.66777 8.05968 3.74832
O 11.63213 9.59980 7.71550
O 10.89118 3.80429 3.75282
O 13.84193 5.34523 7.72372
O 13.84424 8.04221 3.73294
O 16.80446 9.60167 7.71400
O 7.25715 1.87821 2.22354
O 10.22829 3.44709 6.18202
O 10.20974 6.14809 2.20688
O 13.17523 7.69402 6.18835
O 12.45034 1.90358 2.21438
O 15.42600 3.44048 6.16369
O 15.40347 6.15661 2.21350
O 18.36052 7.71896 6.17840
O 3.82365 3.85399 1.76954
O 6.76103 5.46265 5.74803
O 6.76751 8.11095 1.77153
O 9.77919 9.66772 5.70775
O 8.98515 3.84416 1.78795
O 11.94487 5.40157 5.73362
O 11.92870 8.09498 1.72131
O 14.90941 9.65202 5.74431
O 4.68736 1.36577 2.98302
O 7.62245 2.91663 6.94527
O 7.62655 5.61428 3.00575
O 10.58317 7.17755 6.94385
O 9.85884 1.37754 2.99031
O 12.82852 2.91748 6.92955
O 12.80619 5.63329 2.97315
O 15.74699 7.18385 6.95951
H 13.33602 10.43905 4.54645
                    