# total energy = -597.89039376 eV

CRYSTAL
PRIMVEC
10.355910301 0.000000000 0.000000000
5.896951249 8.512980919 0.000000000
5.896951249 3.088725841 7.932881999
        
PRIMCOORD
81 1
Al 20.50140 10.74939 7.34515
Al 17.55550 9.21447 3.37135
Al 4.57175 5.13116 0.57875
Al 7.52120 6.67294 4.54402
Al 9.06836 2.06477 1.39693
Al 9.75383 2.41747 4.54542
Al 9.74976 5.12922 0.57974
Al 12.69969 6.68911 4.53893
Al 3.88791 2.05789 1.38638
Al 6.84422 3.59980 5.35768
Al 6.83578 6.31543 1.38991
Al 9.78475 7.86056 5.35398
Al 12.33676 3.76667 2.55452
Al 6.80036 0.87443 0.59184
Al 12.01554 6.31237 1.39052
Al 14.97142 7.86732 5.35339
Al 7.16046 3.77459 2.56462
Al 10.10202 5.32053 6.52581
Al 10.11246 8.02922 2.55945
Al 13.06125 9.57417 6.52940
Al 12.01467 3.60309 5.35532
Al 15.28859 5.31816 6.52907
Al 15.28909 8.03328 2.56050
Al 18.23271 9.56739 6.53033
Al 9.42625 4.95899 3.37322
Al 12.36311 6.51579 7.34465
Al 12.37505 9.21645 3.37220
Al 15.32610 10.75934 7.33923
Al 14.60404 4.95924 3.35872
Al 17.55087 6.50295 7.33758
Al 1.62363 0.87090 0.57628
Al 4.58227 2.40716 4.53925
O 6.38392 4.42149 0.98974
O 9.32763 5.96352 4.94863
O 9.34032 8.67342 0.98192
O 12.29020 10.21304 4.94781
O 11.56577 4.41541 0.98345
O 14.54267 5.99698 4.91834
O 14.51316 8.67832 0.98208
O 17.46511 10.21837 4.95074
O 5.34610 1.99252 0.21331
O 8.29508 3.53396 4.18435
O 8.29314 6.24496 0.21789
O 11.24095 7.79684 4.18124
O 10.52126 1.99089 0.21584
O 13.47063 3.50146 4.13948
O 13.47261 6.24082 0.21984
O 16.42769 7.79925 4.18008
O 5.70189 3.84042 3.73712
O 8.65148 5.38514 7.69895
O 8.65611 8.09821 3.73212
O 11.60429 9.63943 7.70204
O 10.88465 3.83995 3.73465
O 13.83140 5.42108 7.74401
O 13.83184 8.10736 3.73174
O 16.77595 9.63394 7.70362
O 7.24851 1.94028 2.20747
O 10.20246 3.48480 6.16538
O 10.20132 6.19498 2.20150
O 13.14987 7.73926 6.16551
O 12.42581 1.93359 2.18994
O 15.41729 3.45676 6.17936
O 15.37585 6.20005 2.19565
O 18.32534 7.73866 6.16504
O 3.79919 3.89330 1.74278
O 6.74694 5.43546 5.71842
O 6.74701 8.14890 1.74884
O 9.69548 9.69544 5.71839
O 8.98051 3.89774 1.76027
O 11.88066 5.46917 5.70216
O 11.92682 8.14551 1.75513
O 14.87856 9.69466 5.71913
O 4.66458 1.41174 2.96106
O 7.62014 2.95606 6.93382
O 7.60691 5.67015 2.96816
O 10.55356 7.22255 6.93653
O 9.84178 1.41584 2.96742
O 12.76339 2.92695 6.96419
O 12.78970 5.66869 2.97020
O 15.73811 7.21495 6.93276
H 13.63717 4.48182 5.93739
                    