# total energy = -597.89069842 eV

CRYSTAL
PRIMVEC
10.355910301 0.000000000 0.000000000
5.896951249 8.512980919 0.000000000
5.896951249 3.088725841 7.932881999
        
PRIMCOORD
81 1
Al 20.50636 10.75440 7.35179
Al 17.56119 9.21534 3.39009
Al 4.57376 5.12356 0.58572
Al 7.52662 6.66507 4.56023
Al 9.07325 2.05149 1.40578
Al 9.75744 2.41182 4.56072
Al 9.76033 5.12321 0.59397
Al 12.69713 6.66628 4.56454
Al 3.89718 2.05128 1.40519
Al 6.84466 3.58120 5.37571
Al 6.84315 6.31160 1.39003
Al 9.78879 7.85066 5.36931
Al 12.34963 3.76668 2.57797
Al 6.80957 0.86647 0.59407
Al 12.02472 6.30921 1.40412
Al 14.95987 7.85931 5.38007
Al 7.17823 3.75821 2.56893
Al 10.11576 5.30990 6.54357
Al 10.11630 8.02065 2.57535
Al 13.06560 9.56766 6.54439
Al 12.02175 3.59733 5.37176
Al 15.29429 5.30885 6.55925
Al 15.29136 8.03631 2.57378
Al 18.24220 9.56695 6.54207
Al 9.44130 4.95190 3.38481
Al 12.37869 6.49736 7.35580
Al 12.38018 9.20612 3.38816
Al 15.32965 10.75283 7.35417
Al 14.60916 4.95266 3.38821
Al 17.56518 6.49619 7.36219
Al 1.63264 0.86550 0.59655
Al 4.57563 2.40052 4.55733
O 6.39318 4.41425 1.00038
O 9.34156 5.95369 4.96384
O 9.34321 8.66484 0.99903
O 12.29270 10.20300 4.96939
O 11.57692 4.41147 1.00040
O 14.47727 5.95198 5.00050
O 14.52068 8.67088 0.99493
O 17.47290 10.21944 4.96660
O 5.35328 1.98453 0.23379
O 8.29892 3.52960 4.19639
O 8.30372 6.23966 0.22840
O 11.24654 7.78249 4.19806
O 10.52974 1.98265 0.24108
O 13.47997 3.52810 4.19756
O 13.47313 6.24009 0.22186
O 16.42609 7.83108 4.21295
O 5.70991 3.77794 3.73321
O 8.66581 5.37933 7.72471
O 8.65765 8.08875 3.74966
O 11.60919 9.63823 7.70793
O 10.89164 3.83468 3.74941
O 13.83536 5.38118 7.72232
O 13.83801 8.08899 3.75347
O 16.78634 9.63498 7.71437
O 7.25974 1.92695 2.21494
O 10.20397 3.47682 6.18115
O 10.21645 6.18782 2.21263
O 13.14912 7.73846 6.18727
O 12.43767 1.93265 2.21678
O 15.38500 3.47738 6.17832
O 15.35495 6.20804 2.17066
O 18.33190 7.73053 6.18065
O 3.80700 3.88759 1.76678
O 6.77983 5.41166 5.77507
O 6.75291 8.14264 1.77021
O 9.70060 9.68517 5.73071
O 8.98984 3.88122 1.76323
O 11.92195 5.43036 5.73576
O 11.93545 8.14149 1.76632
O 14.87868 9.69137 5.73446
O 4.66467 1.39633 2.98116
O 7.61773 2.94907 6.95342
O 7.65800 5.66643 2.95023
O 10.56334 7.20849 6.94741
O 9.84430 1.41370 2.98089
O 12.79641 2.95473 6.94805
O 12.79729 5.66453 2.98437
O 15.74592 7.20618 6.94945
H 16.24493 5.78765 3.96699
                    